/*--------------------------------*- C++ -*----------------------------------*\
| =========                 |                                                 |
| \\      /  F ield         | foam-extend: Open Source CFD                    |
|  \\    /   O peration     | Version:     4.1                                |
|   \\  /    A nd           | Web:         http://www.foam-extend.org         |
|    \\/     M anipulation  |                                                 |
\*---------------------------------------------------------------------------*/
FoamFile
{
    version     2.0;
    format      ascii;
    class       polyBoundaryMesh;
    location    "constant/polyMesh";
    object      boundary;
}
// * * * * * * * * * * * * * * * * * * * * * * * * * * * * * * * * * * * * * //

6
(
    left
    {
        type            patch;
        nFaces          128;
        startFace       32512;
    }
    right
    {
        type            patch;
        nFaces          128;
        startFace       32640;
    }
    top
    {
        type            patch;
        nFaces          128;
        startFace       32768;
    }
    bottom
    {
        type            patch;
        nFaces          128;
        startFace       32896;
    }
    front
    {
        type            empty;
        nFaces          16384;
        startFace       33024;
    }
    back
    {
        type            empty;
        nFaces          16384;
        startFace       49408;
    }
)


// ************************************************************************* //
